hello flexis
new line.
text file.
hey guys!
